<edges>
    <!-- Main Highway (4 lanes) -->
    <edge id="A2B" from="A" to="B" numLanes="3" speed="27.77"/>
    <edge id="B2C" from="B" to="C" numLanes="3" speed="27.77"/>
	<edge id="C2D" from="C" to="D" numLanes="3" speed="27.77"/>
	<edge id="D2E" from="D" to="E" numLanes="3" speed="27.77"/>

    <!-- On-Ramp (1 lane) -->
	<edge id="F2G" from="F" to="G" numLanes="1" speed="22.22"/> 
    <edge id="G2C" from="G" to="C" numLanes="1" speed="27.77"/>
</edges>