<routes>
    <!-- MAIN HIGHWAY ROUTE (A, B, C, D, E ) -->
    <route id="highway_route" edges="A2B B2C C2D D2E"/>  <!-- Critical fix: Add this line -->

    <!-- ON-RAMP ROUTE (F, T, G) -->
    <route id="onramp_route" edges="F2G G2C C2D D2E"/>

    <!-- Vehicles -->
	<vType id="car" vClass="passenger" 
    accel="2.6" decel="4.5" emergencyDecel="9.0" sigma="0.3"
    carFollowModel="IDM"
	tau="1.0"
	minGap="2.0"
    lcStrategic="1.5"
    lcCooperative="1.5"
	lcSpeedGain="1.5"
	jmIgnoreFoeProb="0.0"
	jmStoplineGap="2.0"/>


    <!-- Main highway flow -->
    <flow id="highway_flow" type="car" route="highway_route" 
          begin="0" end="3600" period="0.36" departSpeed="random" departLane="random"/>  <!-- 10,000 veh/hour -->

    <!-- On-ramp flow -->
    <flow id="ramp_flow" type="car" route="onramp_route" 
          begin="0" end="3600" period="3.6" departSpeed="random" departLane="random"/>  <!-- 1000 veh/hour -->
</routes>