<connections>
    <!-- Main highway continuity -->
    <connection from="A2B" to="B2C" fromLane="0" toLane="0"/>
    <connection from="A2B" to="B2C" fromLane="1" toLane="1"/>
    <connection from="A2B" to="B2C" fromLane="2" toLane="2"/>
	
	<connection from="B2C" to="C2D" fromLane="0" toLane="0"/>
    <connection from="B2C" to="C2D" fromLane="1" toLane="1"/>
    <connection from="B2C" to="C2D" fromLane="2" toLane="2"/>
	
	<connection from="C2D" to="D2E" fromLane="0" toLane="0"/>
    <connection from="C2D" to="D2E" fromLane="1" toLane="1"/>
    <connection from="C2D" to="D2E" fromLane="2" toLane="2"/>
	
    <!-- On-ramp merges into rightmost lane of highway -->
    <connection from="F2G" to="G2C" fromLane="0" toLane="0"/>
</connections>