<nodes>
    <!-- Main highway nodes -->
    <node id="A" x="0.0" y="0.0" type="priority"/>
	<node id="B" x="500.0" y="0.0" type="zipper"/> <!-- Merge point -->
    <node id="C" x="1000.0" y="0.0" type="priority"/> 

    <!-- On-ramp nodes -->
    <node id="E" x="0" y="-18.0" type="priority"/> <!-- Start of ramp -->
    <node id="F" x="455.0" y="-18.0" type="priority"/> <!-- Curve point -->
</nodes>