<sumoConfiguration>
    <input>
        <net-file value="oldHighways.net.xml"/>
        <route-files value="oldHighways.rou.xml"/>
    </input>

    <time>
        <begin value="0"/>
        <step-length value="0.1"/>
    </time>

    <processing>
        <lateral-resolution value="0.5"/>
        <time-to-teleport value="-1"/>
    </processing>
</sumoConfiguration>