<edges>
    <!-- Main Highway (4 lanes) -->
    <edge id="A2B" from="A" to="B" numLanes="3" speed="27.77"/>
    <edge id="B2C" from="B" to="C" numLanes="3" speed="27.77"/>

    <!-- On-Ramp (1 lane) -->
	<edge id="E2F" from="E" to="F" numLanes="1" speed="22.22"/>
    <edge id="F2B" from="F" to="B" numLanes="1" speed="22.22"/>
</edges>